Circuit: * C:\Users\Steven\Oklahoma State University\HEP - Documents\Serial Powering\Serial Powering - Power Supply\Simulations\3845A.asc

Direct Newton iteration failed to find .op point.  (Use ".option noopiter" to skip.)
Starting Gmin stepping
Gmin = 10
Gmin = 1.07374
Gmin = 0.115292
Gmin = 0.0123794
Gmin = 0.00132923
Gmin = 0.000142725
Gmin = 1.5325e-005
Gmin = 1.6455e-006
Gmin = 1.76685e-007
Gmin = 1.89714e-008
Gmin = 2.03704e-009
Gmin = 2.18725e-010
Gmin = 2.34854e-011
Gmin = 2.52173e-012
Gmin = 2.70769e-013
Gmin = 0
Gmin stepping succeeded in finding the operating point.

Ignoring empty pin current: Ix(u1:7)
Ignoring empty pin current: Ix(u1:7)
Changing Tseed to 1.95313e-010

Date: Tue Oct 16 12:37:09 2018
Total elapsed time: 30.382 seconds.

tnom = 27
temp = 27
method = modified trap
totiter = 621839
traniter = 621386
tranpoints = 173307
accept = 129928
rejected = 43378
matrix size = 61
fillins = 19
solver = Normal
Thread vector: 18.0/13.7[2] 20.2/8.1[2] 1.4/3.4[1] 0.5/421.9[1]  2592/500
Matrix Compiler1: 3.66 KB object code size  2.6/1.5/[0.5]
Matrix Compiler2: 4.53 KB object code size  1.5/4.8/[0.7]

